<?xml version="1.0" encoding="UTF-8"?>

<!-- generated on 01/15/21 13:24:30 by Eclipse SUMO netedit Version 1.6.0
<configuration xmlns:xsi="http://www.w3.org/2001/XMLSchema-instance" xsi:noNamespaceSchemaLocation="http://sumo.dlr.de/xsd/netconvertConfiguration.xsd">

    <input>
        <sumo-net-file value="D:\Code\PycharmProjects\CAV\envs\multi_lane_v1\new_cross3.net.xml"/>
    </input>

    <output>
        <output-file value="D:\Code\PycharmProjects\CAV\envs\multi_lane_v1\new_cross3.net.xml"/>
    </output>

    <processing>
        <geometry.min-radius.fix.railways value="false"/>
        <geometry.max-grade.fix value="false"/>
        <offset.disable-normalization value="true"/>
        <lefthand value="false"/>
    </processing>

    <junctions>
        <no-internal-links value="false"/>
        <no-turnarounds value="true"/>
        <junctions.corner-detail value="5"/>
        <junctions.limit-turn-speed value="5.5"/>
        <rectangular-lane-cut value="false"/>
    </junctions>

    <pedestrian>
        <walkingareas value="false"/>
    </pedestrian>

    <report>
        <aggregate-warnings value="5"/>
    </report>

</configuration>
-->

<net version="1.6" junctionCornerDetail="5" limitTurnSpeed="5.50" xmlns:xsi="http://www.w3.org/2001/XMLSchema-instance" xsi:noNamespaceSchemaLocation="http://sumo.dlr.de/xsd/net_file.xsd">

    <location netOffset="0.00,0.00" convBoundary="-50.00,-25.00,100.00,25.00" origBoundary="-10000000000.00,-10000000000.00,10000000000.00,10000000000.00" projParameter="!"/>

    <edge id=":gneJ0_w0" function="walkingarea">
        <lane id=":gneJ0_w0_0" index="0" allow="pedestrian" speed="1.00" length="2.00" width="2.00" shape="0.00,25.00 -2.00,25.00 2.00,25.00 0.00,25.00"/>
    </edge>
    <edge id=":gneJ1_0" function="internal">
        <lane id=":gneJ1_0_0" index="0" speed="13.89" length="7.00" shape="3.50,8.00 -3.50,8.00"/>
        <lane id=":gneJ1_0_1" index="1" speed="13.89" length="7.00" shape="3.50,4.80 -3.50,4.80"/>
        <lane id=":gneJ1_0_2" index="2" speed="13.89" length="7.00" shape="3.50,1.60 -3.50,1.60"/>
    </edge>
    <edge id=":gneJ1_3" function="internal">
        <lane id=":gneJ1_3_0" index="0" speed="13.89" length="7.00" shape="-3.50,-8.00 3.50,-8.00"/>
        <lane id=":gneJ1_3_1" index="1" speed="13.89" length="7.00" shape="-3.50,-4.80 3.50,-4.80"/>
        <lane id=":gneJ1_3_2" index="2" speed="13.89" length="7.00" shape="-3.50,-1.60 3.50,-1.60"/>
    </edge>
    <edge id=":gneJ1_c0" function="crossing" crossingEdges="gneE2">
        <lane id=":gneJ1_c0_0" index="0" allow="pedestrian" speed="1.00" length="9.60" width="7.00" shape="0.00,0.00 0.00,9.60"/>
    </edge>
    <edge id=":gneJ1_c1" function="crossing" crossingEdges="-gneE2">
        <lane id=":gneJ1_c1_0" index="0" allow="pedestrian" speed="1.00" length="9.60" width="7.00" shape="0.00,-9.60 0.00,-0.00"/>
    </edge>
    <edge id=":gneJ1_w0" function="walkingarea">
        <lane id=":gneJ1_w0_0" index="0" allow="pedestrian" speed="1.00" length="13.12" width="3.20" shape="-2.00,11.10 0.00,11.10 0.00,11.10 2.00,11.10 3.50,9.60 3.50,6.40 3.50,6.40 3.50,3.20 3.50,3.20 3.50,0.00 3.50,-0.00 3.50,-3.20 3.50,-3.20 3.50,-6.40 3.50,-6.40 3.50,-9.60 2.00,-11.10 0.00,-11.10 0.00,-11.10 -2.00,-11.10 -3.50,-9.60 -3.50,-6.40 -3.50,-6.40 -3.50,-3.20 -3.50,-3.20 -3.50,0.00 -3.50,0.00 -3.50,3.20 -3.50,3.20 -3.50,6.40 -3.50,6.40 -3.50,9.60 -2.04,10.62 -2.15,10.24 -2.35,9.95 -2.64,9.75 -3.02,9.64"/>
    </edge>
    <edge id=":gneJ1_w1" function="walkingarea">
        <lane id=":gneJ1_w1_0" index="0" allow="pedestrian" speed="1.00" length="19.20" width="7.00" shape="-3.50,9.60 3.50,9.60 3.50,-9.60 -3.50,-9.60"/>
    </edge>
    <edge id=":gneJ1_w2" function="walkingarea">
        <lane id=":gneJ1_w2_0" index="0" allow="pedestrian" speed="1.00" length="0.10" width="7.00" shape="-3.50,-0.00 3.50,-0.00 3.50,0.00 -3.50,0.00"/>
    </edge>
    <edge id=":gneJ3_w0" function="walkingarea">
        <lane id=":gneJ3_w0_0" index="0" allow="pedestrian" speed="1.00" length="2.00" width="2.00" shape="0.00,-25.00 2.00,-25.00 -2.00,-25.00 0.00,-25.00"/>
    </edge>
    <edge id=":gneJ4_w0" function="walkingarea">
        <lane id=":gneJ4_w0_0" index="0" allow="pedestrian" speed="1.00" length="16.00" width="3.20" shape="100.00,0.00 100.00,3.20 100.00,3.20 100.00,6.40 100.00,6.40 100.00,9.60 100.00,-9.60 100.00,-6.40 100.00,-6.40 100.00,-3.20 100.00,-3.20 100.00,-0.00"/>
    </edge>
    <edge id=":gneJ5_w0" function="walkingarea">
        <lane id=":gneJ5_w0_0" index="0" allow="pedestrian" speed="1.00" length="16.00" width="3.20" shape="-50.00,0.00 -50.00,-3.20 -50.00,-3.20 -50.00,-6.40 -50.00,-6.40 -50.00,-9.60 -50.00,9.60 -50.00,6.40 -50.00,6.40 -50.00,3.20 -50.00,3.20 -50.00,0.00"/>
    </edge>

    <edge id="-gneE0" from="gneJ1" to="gneJ0" priority="-1">
        <lane id="-gneE0_0" index="0" allow="pedestrian" speed="13.89" length="13.90" width="2.00" shape="1.00,11.10 1.00,25.00"/>
    </edge>
    <edge id="-gneE1" from="gneJ3" to="gneJ1" priority="-1">
        <lane id="-gneE1_0" index="0" allow="pedestrian" speed="13.89" length="13.90" width="2.00" shape="1.00,-25.00 1.00,-11.10"/>
    </edge>
    <edge id="-gneE2" from="gneJ1" to="gneJ4" priority="-1">
        <lane id="-gneE2_0" index="0" speed="13.89" length="96.50" shape="3.50,-8.00 100.00,-8.00"/>
        <lane id="-gneE2_1" index="1" speed="13.89" length="96.50" shape="3.50,-4.80 100.00,-4.80"/>
        <lane id="-gneE2_2" index="2" speed="13.89" length="96.50" shape="3.50,-1.60 100.00,-1.60"/>
    </edge>
    <edge id="-gneE3" from="gneJ5" to="gneJ1" priority="-1">
        <lane id="-gneE3_0" index="0" speed="13.89" length="46.50" shape="-50.00,-8.00 -3.50,-8.00"/>
        <lane id="-gneE3_1" index="1" speed="13.89" length="46.50" shape="-50.00,-4.80 -3.50,-4.80"/>
        <lane id="-gneE3_2" index="2" speed="13.89" length="46.50" shape="-50.00,-1.60 -3.50,-1.60"/>
    </edge>
    <edge id="gneE0" from="gneJ0" to="gneJ1" priority="-1">
        <lane id="gneE0_0" index="0" allow="pedestrian" speed="13.89" length="13.90" width="2.00" shape="-1.00,25.00 -1.00,11.10"/>
    </edge>
    <edge id="gneE1" from="gneJ1" to="gneJ3" priority="-1">
        <lane id="gneE1_0" index="0" allow="pedestrian" speed="13.89" length="13.90" width="2.00" shape="-1.00,-11.10 -1.00,-25.00"/>
    </edge>
    <edge id="gneE2" from="gneJ4" to="gneJ1" priority="-1">
        <lane id="gneE2_0" index="0" speed="13.89" length="96.50" shape="100.00,8.00 3.50,8.00"/>
        <lane id="gneE2_1" index="1" speed="13.89" length="96.50" shape="100.00,4.80 3.50,4.80"/>
        <lane id="gneE2_2" index="2" speed="13.89" length="96.50" shape="100.00,1.60 3.50,1.60"/>
    </edge>
    <edge id="gneE3" from="gneJ1" to="gneJ5" priority="-1">
        <lane id="gneE3_0" index="0" speed="13.89" length="46.50" shape="-3.50,8.00 -50.00,8.00"/>
        <lane id="gneE3_1" index="1" speed="13.89" length="46.50" shape="-3.50,4.80 -50.00,4.80"/>
        <lane id="gneE3_2" index="2" speed="13.89" length="46.50" shape="-3.50,1.60 -50.00,1.60"/>
    </edge>

    <junction id="gneJ0" type="dead_end" x="0.00" y="25.00" incLanes="-gneE0_0" intLanes="" shape="0.00,25.00 2.00,25.00 0.00,25.00"/>
    <junction id="gneJ1" type="priority" x="0.00" y="0.00" incLanes="gneE0_0 gneE2_0 gneE2_1 gneE2_2 -gneE1_0 -gneE3_0 -gneE3_1 -gneE3_2 :gneJ1_w2_0 :gneJ1_w1_0" intLanes=":gneJ1_0_0 :gneJ1_0_1 :gneJ1_0_2 :gneJ1_3_0 :gneJ1_3_1 :gneJ1_3_2 :gneJ1_c0_0 :gneJ1_c1_0" shape="-2.00,11.10 2.00,11.10 2.17,10.27 2.37,9.97 2.67,9.77 3.04,9.64 3.50,9.60 3.50,-9.60 2.67,-9.77 2.38,-9.98 2.17,-10.27 2.04,-10.64 2.00,-11.10 -2.00,-11.10 -2.17,-10.27 -2.37,-9.97 -2.67,-9.77 -3.04,-9.64 -3.50,-9.60 -3.50,9.60 -2.67,9.77 -2.38,9.98 -2.17,10.27 -2.04,10.64">
        <request index="0" response="01000000" foes="01000000" cont="0"/>
        <request index="1" response="01000000" foes="01000000" cont="0"/>
        <request index="2" response="01000000" foes="01000000" cont="0"/>
        <request index="3" response="10000000" foes="10000000" cont="0"/>
        <request index="4" response="10000000" foes="10000000" cont="0"/>
        <request index="5" response="10000000" foes="10000000" cont="0"/>
        <request index="6" response="00000000" foes="00000111" cont="0"/>
        <request index="7" response="00000000" foes="00111000" cont="0"/>
    </junction>
    <junction id="gneJ3" type="dead_end" x="0.00" y="-25.00" incLanes="gneE1_0" intLanes="" shape="0.00,-25.00 -2.00,-25.00 0.00,-25.00"/>
    <junction id="gneJ4" type="dead_end" x="100.00" y="0.00" incLanes="-gneE2_0 -gneE2_1 -gneE2_2" intLanes="" shape="100.00,0.00 100.00,-9.60 100.00,0.00"/>
    <junction id="gneJ5" type="dead_end" x="-50.00" y="0.00" incLanes="gneE3_0 gneE3_1 gneE3_2" intLanes="" shape="-50.00,0.00 -50.00,9.60 -50.00,0.00"/>

    <connection from="-gneE3" to="-gneE2" fromLane="0" toLane="0" via=":gneJ1_3_0" dir="s" state="m"/>
    <connection from="-gneE3" to="-gneE2" fromLane="1" toLane="1" via=":gneJ1_3_1" dir="s" state="m"/>
    <connection from="-gneE3" to="-gneE2" fromLane="2" toLane="2" via=":gneJ1_3_2" dir="s" state="m"/>
    <connection from="gneE2" to="gneE3" fromLane="0" toLane="0" via=":gneJ1_0_0" dir="s" state="m"/>
    <connection from="gneE2" to="gneE3" fromLane="1" toLane="1" via=":gneJ1_0_1" dir="s" state="m"/>
    <connection from="gneE2" to="gneE3" fromLane="2" toLane="2" via=":gneJ1_0_2" dir="s" state="m"/>

    <connection from=":gneJ1_0" to="gneE3" fromLane="0" toLane="0" dir="s" state="M"/>
    <connection from=":gneJ1_0" to="gneE3" fromLane="1" toLane="1" dir="s" state="M"/>
    <connection from=":gneJ1_0" to="gneE3" fromLane="2" toLane="2" dir="s" state="M"/>
    <connection from=":gneJ1_3" to="-gneE2" fromLane="0" toLane="0" dir="s" state="M"/>
    <connection from=":gneJ1_3" to="-gneE2" fromLane="1" toLane="1" dir="s" state="M"/>
    <connection from=":gneJ1_3" to="-gneE2" fromLane="2" toLane="2" dir="s" state="M"/>

    <connection from=":gneJ0_w0" to="gneE0" fromLane="0" toLane="0" dir="s" state="M"/>
    <connection from="-gneE0" to=":gneJ0_w0" fromLane="0" toLane="0" dir="s" state="M"/>
    <connection from=":gneJ1_c0" to=":gneJ1_w1" fromLane="0" toLane="0" dir="s" state="M"/>
    <connection from=":gneJ1_c1" to=":gneJ1_w2" fromLane="0" toLane="0" dir="s" state="M"/>
    <connection from=":gneJ1_w0" to="-gneE0" fromLane="0" toLane="0" dir="s" state="M"/>
    <connection from=":gneJ1_w0" to="-gneE2" fromLane="0" toLane="0" dir="s" state="M"/>
    <connection from=":gneJ1_w0" to="gneE1" fromLane="0" toLane="0" dir="s" state="M"/>
    <connection from=":gneJ1_w0" to="gneE3" fromLane="0" toLane="0" dir="s" state="M"/>
    <connection from="gneE0" to=":gneJ1_w0" fromLane="0" toLane="0" dir="s" state="M"/>
    <connection from="gneE2" to=":gneJ1_w0" fromLane="0" toLane="0" dir="s" state="M"/>
    <connection from="-gneE1" to=":gneJ1_w0" fromLane="0" toLane="0" dir="s" state="M"/>
    <connection from="-gneE3" to=":gneJ1_w0" fromLane="0" toLane="0" dir="s" state="M"/>
    <connection from=":gneJ1_w1" to=":gneJ1_c1" fromLane="0" toLane="0" dir="s" state="M"/>
    <connection from=":gneJ1_w2" to=":gneJ1_c0" fromLane="0" toLane="0" dir="s" state="M"/>
    <connection from=":gneJ3_w0" to="-gneE1" fromLane="0" toLane="0" dir="s" state="M"/>
    <connection from="gneE1" to=":gneJ3_w0" fromLane="0" toLane="0" dir="s" state="M"/>
    <connection from=":gneJ4_w0" to="gneE2" fromLane="0" toLane="0" dir="s" state="M"/>
    <connection from="-gneE2" to=":gneJ4_w0" fromLane="0" toLane="0" dir="s" state="M"/>
    <connection from=":gneJ5_w0" to="-gneE3" fromLane="0" toLane="0" dir="s" state="M"/>
    <connection from="gneE3" to=":gneJ5_w0" fromLane="0" toLane="0" dir="s" state="M"/>
</net>
