<?xml version="1.0" encoding="UTF-8"?>

<!-- generated on 01/15/21 15:52:14 by Eclipse SUMO netedit Version 1.6.0
<configuration xmlns:xsi="http://www.w3.org/2001/XMLSchema-instance" xsi:noNamespaceSchemaLocation="http://sumo.dlr.de/xsd/netconvertConfiguration.xsd">

    <input>
        <sumo-net-file value="D:\Code\PycharmProjects\CAV\envs\multi_lane_v2\new_cross3.net.xml"/>
    </input>

    <output>
        <output-file value="D:\Code\PycharmProjects\CAV\envs\multi_lane_v2\new_cross3.net.xml"/>
    </output>

    <processing>
        <geometry.min-radius.fix.railways value="false"/>
        <geometry.max-grade.fix value="false"/>
        <offset.disable-normalization value="true"/>
        <lefthand value="false"/>
    </processing>

    <junctions>
        <no-internal-links value="false"/>
        <no-turnarounds value="true"/>
        <junctions.corner-detail value="5"/>
        <junctions.limit-turn-speed value="5.5"/>
        <rectangular-lane-cut value="false"/>
    </junctions>

    <pedestrian>
        <walkingareas value="false"/>
    </pedestrian>

    <report>
        <aggregate-warnings value="5"/>
    </report>

</configuration>
-->

<net version="1.6" junctionCornerDetail="5" limitTurnSpeed="5.50" xmlns:xsi="http://www.w3.org/2001/XMLSchema-instance" xsi:noNamespaceSchemaLocation="http://sumo.dlr.de/xsd/net_file.xsd">

    <location netOffset="0.00,0.00" convBoundary="-50.00,-25.00,100.00,25.00" origBoundary="-10000000000.00,-10000000000.00,10000000000.00,10000000000.00" projParameter="!"/>

    <edge id=":gneJ0_w0" function="walkingarea">
        <lane id=":gneJ0_w0_0" index="0" allow="pedestrian" speed="1.00" length="8.40" width="2.00" shape="-3.20,25.00 -5.20,25.00 5.20,25.00 3.20,25.00"/>
    </edge>
    <edge id=":gneJ1_0" function="internal">
        <lane id=":gneJ1_0_0" index="0" disallow="pedestrian" speed="5.99" length="3.37" shape="-1.60,11.60 -1.95,10.02 -3.00,8.90 -3.20,8.82"/>
    </edge>
    <edge id=":gneJ1_1" function="internal">
        <lane id=":gneJ1_1_0" index="0" disallow="pedestrian" speed="13.89" length="23.20" shape="-1.60,11.60 -1.60,-11.60"/>
    </edge>
    <edge id=":gneJ1_2" function="internal">
        <lane id=":gneJ1_2_0" index="0" disallow="pedestrian" speed="8.92" length="8.63" shape="-1.60,11.60 -1.05,5.82 0.00,3.20"/>
    </edge>
    <edge id=":gneJ1_16" function="internal">
        <lane id=":gneJ1_16_0" index="0" disallow="pedestrian" speed="5.99" length="4.12" shape="-3.20,8.82 -4.75,8.22 -7.20,8.00"/>
    </edge>
    <edge id=":gneJ1_17" function="internal">
        <lane id=":gneJ1_17_0" index="0" disallow="pedestrian" speed="8.92" length="9.25" shape="0.00,3.20 0.60,1.70 3.35,-0.77 7.20,-1.60"/>
    </edge>
    <edge id=":gneJ1_3" function="internal">
        <lane id=":gneJ1_3_0" index="0" disallow="pedestrian" speed="5.99" length="7.49" shape="7.20,8.00 4.75,8.22 3.00,8.90 1.95,10.02 1.60,11.60"/>
    </edge>
    <edge id=":gneJ1_4" function="internal">
        <lane id=":gneJ1_4_0" index="0" speed="13.89" length="14.40" shape="7.20,8.00 -7.20,8.00"/>
        <lane id=":gneJ1_4_1" index="1" speed="13.89" length="14.40" shape="7.20,4.80 -7.20,4.80"/>
        <lane id=":gneJ1_4_2" index="2" speed="13.89" length="14.40" shape="7.20,1.60 -7.20,1.60"/>
    </edge>
    <edge id=":gneJ1_7" function="internal">
        <lane id=":gneJ1_7_0" index="0" disallow="pedestrian" speed="8.92" length="5.10" shape="7.20,1.60 3.35,0.78 2.49,0.00"/>
    </edge>
    <edge id=":gneJ1_18" function="internal">
        <lane id=":gneJ1_18_0" index="0" disallow="pedestrian" speed="8.92" length="12.79" shape="2.49,0.00 0.60,-1.70 -1.05,-5.82 -1.60,-11.60"/>
    </edge>
    <edge id=":gneJ1_8" function="internal">
        <lane id=":gneJ1_8_0" index="0" disallow="pedestrian" speed="5.99" length="3.37" shape="1.60,-11.60 1.95,-10.02 3.00,-8.90 3.20,-8.82"/>
    </edge>
    <edge id=":gneJ1_9" function="internal">
        <lane id=":gneJ1_9_0" index="0" disallow="pedestrian" speed="13.89" length="23.20" shape="1.60,-11.60 1.60,11.60"/>
    </edge>
    <edge id=":gneJ1_10" function="internal">
        <lane id=":gneJ1_10_0" index="0" disallow="pedestrian" speed="8.92" length="8.63" shape="1.60,-11.60 1.05,-5.82 -0.00,-3.20"/>
    </edge>
    <edge id=":gneJ1_19" function="internal">
        <lane id=":gneJ1_19_0" index="0" disallow="pedestrian" speed="5.99" length="4.12" shape="3.20,-8.82 4.75,-8.22 7.20,-8.00"/>
    </edge>
    <edge id=":gneJ1_20" function="internal">
        <lane id=":gneJ1_20_0" index="0" disallow="pedestrian" speed="8.92" length="9.25" shape="-0.00,-3.20 -0.60,-1.70 -3.35,0.77 -7.20,1.60"/>
    </edge>
    <edge id=":gneJ1_11" function="internal">
        <lane id=":gneJ1_11_0" index="0" disallow="pedestrian" speed="5.99" length="7.49" shape="-7.20,-8.00 -4.75,-8.22 -3.00,-8.90 -1.95,-10.02 -1.60,-11.60"/>
    </edge>
    <edge id=":gneJ1_12" function="internal">
        <lane id=":gneJ1_12_0" index="0" speed="13.89" length="14.40" shape="-7.20,-8.00 7.20,-8.00"/>
        <lane id=":gneJ1_12_1" index="1" speed="13.89" length="14.40" shape="-7.20,-4.80 7.20,-4.80"/>
        <lane id=":gneJ1_12_2" index="2" speed="13.89" length="14.40" shape="-7.20,-1.60 7.20,-1.60"/>
    </edge>
    <edge id=":gneJ1_15" function="internal">
        <lane id=":gneJ1_15_0" index="0" disallow="pedestrian" speed="8.92" length="5.10" shape="-7.20,-1.60 -3.35,-0.78 -2.49,0.00"/>
    </edge>
    <edge id=":gneJ1_21" function="internal">
        <lane id=":gneJ1_21_0" index="0" disallow="pedestrian" speed="8.92" length="12.79" shape="-2.49,0.00 -0.60,1.70 1.05,5.82 1.60,11.60"/>
    </edge>
    <edge id=":gneJ1_c0" function="crossing" crossingEdges="gneE3 -gneE3">
        <lane id=":gneJ1_c0_0" index="0" allow="pedestrian" speed="1.00" length="19.20" width="4.00" shape="5.20,-9.60 5.20,9.60"/>
    </edge>
    <edge id=":gneJ1_c1" function="crossing" crossingEdges="-gneE4 gneE4">
        <lane id=":gneJ1_c1_0" index="0" allow="pedestrian" speed="1.00" length="19.20" width="4.00" shape="-5.20,9.60 -5.20,-9.60"/>
    </edge>
    <edge id=":gneJ1_w0" function="walkingarea">
        <lane id=":gneJ1_w0_0" index="0" allow="pedestrian" speed="1.00" length="14.70" width="3.20" shape="-3.20,-11.60 -5.20,-11.60 -7.20,-9.60 -7.20,-6.40 -7.20,-6.40 -7.20,-3.20 -7.20,-3.20 -7.20,0.00 -7.20,0.00 -7.20,3.20 -7.20,3.20 -7.20,6.40 -7.20,6.40 -7.20,9.60 -5.20,11.60 -3.20,11.60"/>
    </edge>
    <edge id=":gneJ1_w1" function="walkingarea">
        <lane id=":gneJ1_w1_0" index="0" allow="pedestrian" speed="1.00" length="14.70" width="3.20" shape="3.20,11.60 5.20,11.60 7.20,9.60 7.20,6.40 7.20,6.40 7.20,3.20 7.20,3.20 7.20,0.00 7.20,0.00 7.20,-3.20 7.20,-3.20 7.20,-6.40 7.20,-6.40 7.20,-9.60 5.20,-11.60 3.20,-11.60"/>
    </edge>
    <edge id=":gneJ1_w2" function="walkingarea">
        <lane id=":gneJ1_w2_0" index="0" allow="pedestrian" speed="1.00" length="10.40" width="4.00" shape="3.20,9.60 7.20,9.60 -7.20,9.60 -3.20,9.60"/>
    </edge>
    <edge id=":gneJ1_w3" function="walkingarea">
        <lane id=":gneJ1_w3_0" index="0" allow="pedestrian" speed="1.00" length="10.40" width="4.00" shape="-3.20,-9.60 -7.20,-9.60 7.20,-9.60 3.20,-9.60"/>
    </edge>
    <edge id=":gneJ3_w0" function="walkingarea">
        <lane id=":gneJ3_w0_0" index="0" allow="pedestrian" speed="1.00" length="8.40" width="2.00" shape="3.20,-25.00 5.20,-25.00 -5.20,-25.00 -3.20,-25.00"/>
    </edge>
    <edge id=":gneJ4_w0" function="walkingarea">
        <lane id=":gneJ4_w0_0" index="0" allow="pedestrian" speed="1.00" length="16.00" width="3.20" shape="100.00,0.00 100.00,3.20 100.00,3.20 100.00,6.40 100.00,6.40 100.00,9.60 100.00,-9.60 100.00,-6.40 100.00,-6.40 100.00,-3.20 100.00,-3.20 100.00,0.00"/>
    </edge>
    <edge id=":gneJ5_w0" function="walkingarea">
        <lane id=":gneJ5_w0_0" index="0" allow="pedestrian" speed="1.00" length="16.00" width="3.20" shape="-50.00,0.00 -50.00,-3.20 -50.00,-3.20 -50.00,-6.40 -50.00,-6.40 -50.00,-9.60 -50.00,9.60 -50.00,6.40 -50.00,6.40 -50.00,3.20 -50.00,3.20 -50.00,0.00"/>
    </edge>

    <edge id="-gneE0" from="gneJ1" to="gneJ0" priority="-1">
        <lane id="-gneE0_0" index="0" allow="pedestrian" speed="13.89" length="13.40" width="2.00" shape="4.20,11.60 4.20,25.00"/>
        <lane id="-gneE0_1" index="1" disallow="pedestrian" speed="13.89" length="13.40" shape="1.60,11.60 1.60,25.00"/>
    </edge>
    <edge id="-gneE2" from="gneJ3" to="gneJ1" priority="-1">
        <lane id="-gneE2_0" index="0" allow="pedestrian" speed="13.89" length="13.40" width="2.00" shape="4.20,-25.00 4.20,-11.60"/>
        <lane id="-gneE2_1" index="1" disallow="pedestrian" speed="13.89" length="13.40" shape="1.60,-25.00 1.60,-11.60"/>
    </edge>
    <edge id="-gneE3" from="gneJ4" to="gneJ1" priority="-1">
        <lane id="-gneE3_0" index="0" speed="13.89" length="92.80" shape="100.00,8.00 7.20,8.00"/>
        <lane id="-gneE3_1" index="1" speed="13.89" length="92.80" shape="100.00,4.80 7.20,4.80"/>
        <lane id="-gneE3_2" index="2" speed="13.89" length="92.80" shape="100.00,1.60 7.20,1.60"/>
    </edge>
    <edge id="-gneE4" from="gneJ1" to="gneJ5" priority="-1">
        <lane id="-gneE4_0" index="0" speed="13.89" length="42.80" shape="-7.20,8.00 -50.00,8.00"/>
        <lane id="-gneE4_1" index="1" speed="13.89" length="42.80" shape="-7.20,4.80 -50.00,4.80"/>
        <lane id="-gneE4_2" index="2" speed="13.89" length="42.80" shape="-7.20,1.60 -50.00,1.60"/>
    </edge>
    <edge id="gneE0" from="gneJ0" to="gneJ1" priority="-1">
        <lane id="gneE0_0" index="0" allow="pedestrian" speed="13.89" length="13.40" width="2.00" shape="-4.20,25.00 -4.20,11.60"/>
        <lane id="gneE0_1" index="1" disallow="pedestrian" speed="13.89" length="13.40" shape="-1.60,25.00 -1.60,11.60"/>
    </edge>
    <edge id="gneE2" from="gneJ1" to="gneJ3" priority="-1">
        <lane id="gneE2_0" index="0" allow="pedestrian" speed="13.89" length="13.40" width="2.00" shape="-4.20,-11.60 -4.20,-25.00"/>
        <lane id="gneE2_1" index="1" disallow="pedestrian" speed="13.89" length="13.40" shape="-1.60,-11.60 -1.60,-25.00"/>
    </edge>
    <edge id="gneE3" from="gneJ1" to="gneJ4" priority="-1">
        <lane id="gneE3_0" index="0" speed="13.89" length="92.80" shape="7.20,-8.00 100.00,-8.00"/>
        <lane id="gneE3_1" index="1" speed="13.89" length="92.80" shape="7.20,-4.80 100.00,-4.80"/>
        <lane id="gneE3_2" index="2" speed="13.89" length="92.80" shape="7.20,-1.60 100.00,-1.60"/>
    </edge>
    <edge id="gneE4" from="gneJ5" to="gneJ1" priority="-1">
        <lane id="gneE4_0" index="0" speed="13.89" length="42.80" shape="-50.00,-8.00 -7.20,-8.00"/>
        <lane id="gneE4_1" index="1" speed="13.89" length="42.80" shape="-50.00,-4.80 -7.20,-4.80"/>
        <lane id="gneE4_2" index="2" speed="13.89" length="42.80" shape="-50.00,-1.60 -7.20,-1.60"/>
    </edge>

    <tlLogic id="gneJ1" type="static" programID="0" offset="0">
        <phase duration="42" state="rrrGGGGgrrrGGGGgrr"/>
        <phase duration="3"  state="rrryyyyyrrryyyyyrr"/>
        <phase duration="37" state="gGgrrrrrgGgrrrrrGG"/>
        <phase duration="5"  state="gGgrrrrrgGgrrrrrrr"/>
        <phase duration="3"  state="yyyrrrrryyyrrrrrrr"/>
    </tlLogic>

    <junction id="gneJ0" type="dead_end" x="0.00" y="25.00" incLanes="-gneE0_0 -gneE0_1" intLanes="" shape="0.00,25.00 5.20,25.00 0.00,25.00"/>
    <junction id="gneJ1" type="traffic_light" x="0.00" y="0.00" incLanes="gneE0_0 gneE0_1 -gneE3_0 -gneE3_1 -gneE3_2 -gneE2_0 -gneE2_1 gneE4_0 gneE4_1 gneE4_2 :gneJ1_w3_0 :gneJ1_w2_0" intLanes=":gneJ1_16_0 :gneJ1_1_0 :gneJ1_17_0 :gneJ1_3_0 :gneJ1_4_0 :gneJ1_4_1 :gneJ1_4_2 :gneJ1_18_0 :gneJ1_19_0 :gneJ1_9_0 :gneJ1_20_0 :gneJ1_11_0 :gneJ1_12_0 :gneJ1_12_1 :gneJ1_12_2 :gneJ1_21_0 :gneJ1_c0_0 :gneJ1_c1_0" shape="-5.20,11.60 5.20,11.60 5.42,10.49 5.70,10.10 6.09,9.82 6.59,9.66 7.20,9.60 7.20,-9.60 6.09,-9.82 5.70,-10.10 5.42,-10.49 5.26,-10.99 5.20,-11.60 -5.20,-11.60 -5.42,-10.49 -5.70,-10.10 -6.09,-9.82 -6.59,-9.66 -7.20,-9.60 -7.20,9.60 -6.09,9.82 -5.70,10.10 -5.42,10.49 -5.26,10.99">
        <request index="0"  response="100000000001110000" foes="100000000001110000" cont="1"/>
        <request index="1"  response="001111100011110000" foes="001111110011110000" cont="0"/>
        <request index="2"  response="011111001011110000" foes="011111001011110000" cont="1"/>
        <request index="3"  response="010000000000000000" foes="011000001000000000" cont="0"/>
        <request index="4"  response="110000010000000101" foes="111000011000000111" cont="0"/>
        <request index="5"  response="110000010000000101" foes="111000011000000111" cont="0"/>
        <request index="6"  response="110000010000000101" foes="111000011000000111" cont="0"/>
        <request index="7"  response="010111110000000100" foes="010111111000000110" cont="1"/>
        <request index="8"  response="010111000000000000" foes="010111000000000000" cont="1"/>
        <request index="9"  response="001111000011111000" foes="001111000011111100" cont="0"/>
        <request index="10" response="101111000011110010" foes="101111000011110010" cont="1"/>
        <request index="11" response="100000000000000000" foes="100000000010000010" cont="0"/>
        <request index="12" response="110000010100000100" foes="110000011110000110" cont="0"/>
        <request index="13" response="110000010100000100" foes="110000011110000110" cont="0"/>
        <request index="14" response="110000010100000100" foes="110000011110000110" cont="0"/>
        <request index="15" response="100000010001111100" foes="100000011001111110" cont="1"/>
        <request index="16" response="000000000000000000" foes="000111000111111100" cont="0"/>
        <request index="17" response="000000000000000000" foes="001111110001110001" cont="0"/>
    </junction>
    <junction id="gneJ3" type="dead_end" x="0.00" y="-25.00" incLanes="gneE2_0 gneE2_1" intLanes="" shape="0.00,-25.00 -5.20,-25.00 0.00,-25.00"/>
    <junction id="gneJ4" type="dead_end" x="100.00" y="0.00" incLanes="gneE3_0 gneE3_1 gneE3_2" intLanes="" shape="100.00,0.00 100.00,-9.60 100.00,0.00"/>
    <junction id="gneJ5" type="dead_end" x="-50.00" y="0.00" incLanes="-gneE4_0 -gneE4_1 -gneE4_2" intLanes="" shape="-50.00,0.00 -50.00,9.60 -50.00,0.00"/>

    <junction id=":gneJ1_16_0" type="internal" x="-3.20" y="8.82" incLanes=":gneJ1_0_0" intLanes=":gneJ1_4_0 :gneJ1_4_1 :gneJ1_4_2 :gneJ1_10_0 :gneJ1_c1_0"/>
    <junction id=":gneJ1_17_0" type="internal" x="0.00" y="3.20" incLanes=":gneJ1_2_0 -gneE2_1" intLanes=":gneJ1_4_0 :gneJ1_4_1 :gneJ1_4_2 :gneJ1_7_0 :gneJ1_8_0 :gneJ1_9_0 :gneJ1_12_0 :gneJ1_12_1 :gneJ1_12_2 :gneJ1_15_0 :gneJ1_c0_0"/>
    <junction id=":gneJ1_18_0" type="internal" x="2.49" y="0.00" incLanes=":gneJ1_7_0 gneE4_0 gneE4_1 gneE4_2" intLanes=":gneJ1_1_0 :gneJ1_2_0 :gneJ1_9_0 :gneJ1_10_0 :gneJ1_11_0 :gneJ1_12_0 :gneJ1_12_1 :gneJ1_12_2 :gneJ1_c0_0"/>
    <junction id=":gneJ1_19_0" type="internal" x="3.20" y="-8.82" incLanes=":gneJ1_8_0" intLanes=":gneJ1_2_0 :gneJ1_12_0 :gneJ1_12_1 :gneJ1_12_2 :gneJ1_c0_0"/>
    <junction id=":gneJ1_20_0" type="internal" x="-0.00" y="-3.20" incLanes=":gneJ1_10_0 gneE0_1" intLanes=":gneJ1_0_0 :gneJ1_1_0 :gneJ1_4_0 :gneJ1_4_1 :gneJ1_4_2 :gneJ1_7_0 :gneJ1_12_0 :gneJ1_12_1 :gneJ1_12_2 :gneJ1_15_0 :gneJ1_c1_0"/>
    <junction id=":gneJ1_21_0" type="internal" x="-2.49" y="0.00" incLanes=":gneJ1_15_0 -gneE3_0 -gneE3_1 -gneE3_2" intLanes=":gneJ1_1_0 :gneJ1_2_0 :gneJ1_3_0 :gneJ1_4_0 :gneJ1_4_1 :gneJ1_4_2 :gneJ1_9_0 :gneJ1_10_0 :gneJ1_c1_0"/>

    <connection from="-gneE2" to="gneE3" fromLane="1" toLane="0" via=":gneJ1_8_0" tl="gneJ1" linkIndex="8" dir="r" state="o"/>
    <connection from="-gneE2" to="-gneE0" fromLane="1" toLane="1" via=":gneJ1_9_0" tl="gneJ1" linkIndex="9" dir="s" state="o"/>
    <connection from="-gneE2" to="-gneE4" fromLane="1" toLane="2" via=":gneJ1_10_0" tl="gneJ1" linkIndex="10" dir="l" state="o"/>
    <connection from="-gneE3" to="-gneE0" fromLane="0" toLane="1" via=":gneJ1_3_0" tl="gneJ1" linkIndex="3" dir="r" state="o"/>
    <connection from="-gneE3" to="-gneE4" fromLane="0" toLane="0" via=":gneJ1_4_0" tl="gneJ1" linkIndex="4" dir="s" state="o"/>
    <connection from="-gneE3" to="-gneE4" fromLane="1" toLane="1" via=":gneJ1_4_1" tl="gneJ1" linkIndex="5" dir="s" state="o"/>
    <connection from="-gneE3" to="-gneE4" fromLane="2" toLane="2" via=":gneJ1_4_2" tl="gneJ1" linkIndex="6" dir="s" state="o"/>
    <connection from="-gneE3" to="gneE2" fromLane="2" toLane="1" via=":gneJ1_7_0" tl="gneJ1" linkIndex="7" dir="l" state="o"/>
    <connection from="gneE0" to="-gneE4" fromLane="1" toLane="0" via=":gneJ1_0_0" tl="gneJ1" linkIndex="0" dir="r" state="o"/>
    <connection from="gneE0" to="gneE2" fromLane="1" toLane="1" via=":gneJ1_1_0" tl="gneJ1" linkIndex="1" dir="s" state="o"/>
    <connection from="gneE0" to="gneE3" fromLane="1" toLane="2" via=":gneJ1_2_0" tl="gneJ1" linkIndex="2" dir="l" state="o"/>
    <connection from="gneE4" to="gneE2" fromLane="0" toLane="1" via=":gneJ1_11_0" tl="gneJ1" linkIndex="11" dir="r" state="o"/>
    <connection from="gneE4" to="gneE3" fromLane="0" toLane="0" via=":gneJ1_12_0" tl="gneJ1" linkIndex="12" dir="s" state="o"/>
    <connection from="gneE4" to="gneE3" fromLane="1" toLane="1" via=":gneJ1_12_1" tl="gneJ1" linkIndex="13" dir="s" state="o"/>
    <connection from="gneE4" to="gneE3" fromLane="2" toLane="2" via=":gneJ1_12_2" tl="gneJ1" linkIndex="14" dir="s" state="o"/>
    <connection from="gneE4" to="-gneE0" fromLane="2" toLane="1" via=":gneJ1_15_0" tl="gneJ1" linkIndex="15" dir="l" state="o"/>

    <connection from=":gneJ1_0" to="-gneE4" fromLane="0" toLane="0" via=":gneJ1_16_0" dir="r" state="m"/>
    <connection from=":gneJ1_16" to="-gneE4" fromLane="0" toLane="0" dir="r" state="M"/>
    <connection from=":gneJ1_1" to="gneE2" fromLane="0" toLane="1" dir="s" state="M"/>
    <connection from=":gneJ1_2" to="gneE3" fromLane="0" toLane="2" via=":gneJ1_17_0" dir="l" state="m"/>
    <connection from=":gneJ1_17" to="gneE3" fromLane="0" toLane="2" dir="l" state="M"/>
    <connection from=":gneJ1_3" to="-gneE0" fromLane="0" toLane="1" dir="r" state="M"/>
    <connection from=":gneJ1_4" to="-gneE4" fromLane="0" toLane="0" dir="s" state="M"/>
    <connection from=":gneJ1_4" to="-gneE4" fromLane="1" toLane="1" dir="s" state="M"/>
    <connection from=":gneJ1_4" to="-gneE4" fromLane="2" toLane="2" dir="s" state="M"/>
    <connection from=":gneJ1_7" to="gneE2" fromLane="0" toLane="1" via=":gneJ1_18_0" dir="l" state="m"/>
    <connection from=":gneJ1_18" to="gneE2" fromLane="0" toLane="1" dir="l" state="M"/>
    <connection from=":gneJ1_8" to="gneE3" fromLane="0" toLane="0" via=":gneJ1_19_0" dir="r" state="m"/>
    <connection from=":gneJ1_19" to="gneE3" fromLane="0" toLane="0" dir="r" state="M"/>
    <connection from=":gneJ1_9" to="-gneE0" fromLane="0" toLane="1" dir="s" state="M"/>
    <connection from=":gneJ1_10" to="-gneE4" fromLane="0" toLane="2" via=":gneJ1_20_0" dir="l" state="m"/>
    <connection from=":gneJ1_20" to="-gneE4" fromLane="0" toLane="2" dir="l" state="M"/>
    <connection from=":gneJ1_11" to="gneE2" fromLane="0" toLane="1" dir="r" state="M"/>
    <connection from=":gneJ1_12" to="gneE3" fromLane="0" toLane="0" dir="s" state="M"/>
    <connection from=":gneJ1_12" to="gneE3" fromLane="1" toLane="1" dir="s" state="M"/>
    <connection from=":gneJ1_12" to="gneE3" fromLane="2" toLane="2" dir="s" state="M"/>
    <connection from=":gneJ1_15" to="-gneE0" fromLane="0" toLane="1" via=":gneJ1_21_0" dir="l" state="m"/>
    <connection from=":gneJ1_21" to="-gneE0" fromLane="0" toLane="1" dir="l" state="M"/>

    <connection from=":gneJ0_w0" to="gneE0" fromLane="0" toLane="0" dir="s" state="M"/>
    <connection from="-gneE0" to=":gneJ0_w0" fromLane="0" toLane="0" dir="s" state="M"/>
    <connection from=":gneJ1_c0" to=":gneJ1_w2" fromLane="0" toLane="0" dir="s" state="M"/>
    <connection from=":gneJ1_c1" to=":gneJ1_w3" fromLane="0" toLane="0" dir="s" state="M"/>
    <connection from=":gneJ1_w0" to="gneE2" fromLane="0" toLane="0" dir="s" state="M"/>
    <connection from=":gneJ1_w0" to="-gneE4" fromLane="0" toLane="0" dir="s" state="M"/>
    <connection from="gneE4" to=":gneJ1_w0" fromLane="0" toLane="0" dir="s" state="M"/>
    <connection from="gneE0" to=":gneJ1_w0" fromLane="0" toLane="0" dir="s" state="M"/>
    <connection from=":gneJ1_w1" to="-gneE0" fromLane="0" toLane="0" dir="s" state="M"/>
    <connection from=":gneJ1_w1" to="gneE3" fromLane="0" toLane="0" dir="s" state="M"/>
    <connection from="-gneE3" to=":gneJ1_w1" fromLane="0" toLane="0" dir="s" state="M"/>
    <connection from="-gneE2" to=":gneJ1_w1" fromLane="0" toLane="0" dir="s" state="M"/>
    <connection from=":gneJ1_w2" to=":gneJ1_c1" fromLane="0" toLane="0" tl="gneJ1" linkIndex="17" dir="s" state="M"/>
    <connection from=":gneJ1_w3" to=":gneJ1_c0" fromLane="0" toLane="0" tl="gneJ1" linkIndex="16" dir="s" state="M"/>
    <connection from=":gneJ3_w0" to="-gneE2" fromLane="0" toLane="0" dir="s" state="M"/>
    <connection from="gneE2" to=":gneJ3_w0" fromLane="0" toLane="0" dir="s" state="M"/>
    <connection from=":gneJ4_w0" to="-gneE3" fromLane="0" toLane="0" dir="s" state="M"/>
    <connection from="gneE3" to=":gneJ4_w0" fromLane="0" toLane="0" dir="s" state="M"/>
    <connection from=":gneJ5_w0" to="gneE4" fromLane="0" toLane="0" dir="s" state="M"/>
    <connection from="-gneE4" to=":gneJ5_w0" fromLane="0" toLane="0" dir="s" state="M"/>
</net>
